15816051
  -OEChem-07102522482D

 60 64  0     1  0  0  0  0  0999 V2000
    3.0878   -1.1492    0.0000 Br  0  0  0  0  0  0  0  0  0  0  0  0
    2.0000    0.7349    0.0000 Br  0  0  0  0  0  0  0  0  0  0  0  0
    5.2215   -5.3811    0.0000 Br  0  0  0  0  0  0  0  0  0  0  0  0
    5.4432    2.4668    0.0000 O   0  0  0  0  0  0  0  0  0  0  0  0
    5.4432   -1.5332    0.0000 O   0  0  0  0  0  0  0  0  0  0  0  0
   10.7196   -0.3379    0.0000 N   0  0  0  0  0  0  0  0  0  0  0  0
   10.7196    1.2715    0.0000 N   0  0  0  0  0  0  0  0  0  0  0  0
    6.3092    0.9668    0.0000 N   0  0  0  0  0  0  0  0  0  0  0  0
    7.1753   -1.5332    0.0000 N   0  0  0  0  0  0  0  0  0  0  0  0
    8.0983    3.0546    0.0000 N   0  0  0  0  0  0  0  0  0  0  0  0
    9.4073    4.0056    0.0000 N   0  0  0  0  0  0  0  0  0  0  0  0
   12.3032    0.4668    0.0000 N   0  0  0  0  0  0  0  0  0  0  0  0
    7.8195    4.8147    0.0000 N   0  0  0  0  0  0  0  0  0  0  0  0
    4.4727   -0.0277    0.0000 N   0  0  0  0  0  0  0  0  0  0  0  0
    7.1183   -3.6210    0.0000 N   0  0  0  0  0  0  0  0  0  0  0  0
    8.0413    0.9668    0.0000 C   0  0  2  0  0  0  0  0  0  0  0  0
    8.0413   -0.0332    0.0000 C   0  0  2  0  0  0  0  0  0  0  0  0
    8.9073    1.4668    0.0000 C   0  0  1  0  0  0  0  0  0  0  0  0
    8.9073   -0.5332    0.0000 C   0  0  0  0  0  0  0  0  0  0  0  0
    9.7734    0.9668    0.0000 C   0  0  0  0  0  0  0  0  0  0  0  0
    9.7734   -0.0332    0.0000 C   0  0  0  0  0  0  0  0  0  0  0  0
    7.1753    1.4668    0.0000 C   0  0  0  0  0  0  0  0  0  0  0  0
    7.1753   -0.5332    0.0000 C   0  0  0  0  0  0  0  0  0  0  0  0
    8.9073    2.4668    0.0000 C   0  0  0  0  0  0  0  0  0  0  0  0
   11.3032    0.4668    0.0000 C   0  0  0  0  0  0  0  0  0  0  0  0
    9.7163    3.0546    0.0000 C   0  0  0  0  0  0  0  0  0  0  0  0
    8.4073    4.0056    0.0000 C   0  0  0  0  0  0  0  0  0  0  0  0
    5.4432    1.4668    0.0000 C   0  0  0  0  0  0  0  0  0  0  0  0
    6.3092   -2.0332    0.0000 C   0  0  0  0  0  0  0  0  0  0  0  0
    4.5772    0.9668    0.0000 C   0  0  0  0  0  0  0  0  0  0  0  0
    6.3092   -3.0332    0.0000 C   0  0  0  0  0  0  0  0  0  0  0  0
    3.6636    1.3735    0.0000 C   0  0  0  0  0  0  0  0  0  0  0  0
    5.5002   -3.6210    0.0000 C   0  0  0  0  0  0  0  0  0  0  0  0
    3.4945   -0.2356    0.0000 C   0  0  0  0  0  0  0  0  0  0  0  0
    2.9945    0.6304    0.0000 C   0  0  0  0  0  0  0  0  0  0  0  0
    5.8092   -4.5720    0.0000 C   0  0  0  0  0  0  0  0  0  0  0  0
    6.8092   -4.5720    0.0000 C   0  0  0  0  0  0  0  0  0  0  0  0
    7.5044    0.6568    0.0000 H   0  0  0  0  0  0  0  0  0  0  0  0
    8.5782   -0.3432    0.0000 H   0  0  0  0  0  0  0  0  0  0  0  0
    8.3704    1.7768    0.0000 H   0  0  0  0  0  0  0  0  0  0  0  0
    8.5088   -1.0082    0.0000 H   0  0  0  0  0  0  0  0  0  0  0  0
    9.3058   -1.0082    0.0000 H   0  0  0  0  0  0  0  0  0  0  0  0
    7.5738    1.9418    0.0000 H   0  0  0  0  0  0  0  0  0  0  0  0
    6.7768    1.9418    0.0000 H   0  0  0  0  0  0  0  0  0  0  0  0
    6.9632    0.0494    0.0000 H   0  0  0  0  0  0  0  0  0  0  0  0
    6.5647   -0.6409    0.0000 H   0  0  0  0  0  0  0  0  0  0  0  0
   10.9122   -0.9273    0.0000 H   0  0  0  0  0  0  0  0  0  0  0  0
    6.3092    0.3468    0.0000 H   0  0  0  0  0  0  0  0  0  0  0  0
    7.7122   -1.8432    0.0000 H   0  0  0  0  0  0  0  0  0  0  0  0
    7.5086    2.8630    0.0000 H   0  0  0  0  0  0  0  0  0  0  0  0
   10.3060    2.8630    0.0000 H   0  0  0  0  0  0  0  0  0  0  0  0
   12.6132    1.0037    0.0000 H   0  0  0  0  0  0  0  0  0  0  0  0
   12.6132   -0.0701    0.0000 H   0  0  0  0  0  0  0  0  0  0  0  0
    8.0717    5.3811    0.0000 H   0  0  0  0  0  0  0  0  0  0  0  0
    7.2029    4.7498    0.0000 H   0  0  0  0  0  0  0  0  0  0  0  0
    4.9334   -0.4426    0.0000 H   0  0  0  0  0  0  0  0  0  0  0  0
    3.5348    1.9800    0.0000 H   0  0  0  0  0  0  0  0  0  0  0  0
    7.7079   -3.4294    0.0000 H   0  0  0  0  0  0  0  0  0  0  0  0
    4.9106   -3.4294    0.0000 H   0  0  0  0  0  0  0  0  0  0  0  0
    7.1737   -5.0736    0.0000 H   0  0  0  0  0  0  0  0  0  0  0  0
  1 34  1  0  0  0  0
  2 35  1  0  0  0  0
  3 36  1  0  0  0  0
  4 28  2  0  0  0  0
  5 29  2  0  0  0  0
  6 21  1  0  0  0  0
  6 25  1  0  0  0  0
  6 47  1  0  0  0  0
  7 20  1  0  0  0  0
  7 25  2  0  0  0  0
  8 22  1  0  0  0  0
  8 28  1  0  0  0  0
  8 48  1  0  0  0  0
  9 23  1  0  0  0  0
  9 29  1  0  0  0  0
  9 49  1  0  0  0  0
 10 24  1  0  0  0  0
 10 27  1  0  0  0  0
 10 50  1  0  0  0  0
 11 26  1  0  0  0  0
 11 27  2  0  0  0  0
 12 25  1  0  0  0  0
 12 52  1  0  0  0  0
 12 53  1  0  0  0  0
 13 27  1  0  0  0  0
 13 54  1  0  0  0  0
 13 55  1  0  0  0  0
 14 30  1  0  0  0  0
 14 34  1  0  0  0  0
 14 56  1  0  0  0  0
 15 31  1  0  0  0  0
 15 37  1  0  0  0  0
 15 58  1  0  0  0  0
 16 17  1  0  0  0  0
 16 18  1  0  0  0  0
 16 22  1  1  0  0  0
 16 38  1  0  0  0  0
 17 19  1  0  0  0  0
 17 23  1  6  0  0  0
 17 39  1  0  0  0  0
 18 20  1  0  0  0  0
 18 24  1  6  0  0  0
 18 40  1  0  0  0  0
 19 21  1  0  0  0  0
 19 41  1  0  0  0  0
 19 42  1  0  0  0  0
 20 21  2  0  0  0  0
 22 43  1  0  0  0  0
 22 44  1  0  0  0  0
 23 45  1  0  0  0  0
 23 46  1  0  0  0  0
 24 26  2  0  0  0  0
 26 51  1  0  0  0  0
 28 30  1  0  0  0  0
 29 31  1  0  0  0  0
 30 32  2  0  0  0  0
 31 33  2  0  0  0  0
 32 35  1  0  0  0  0
 32 57  1  0  0  0  0
 33 36  1  0  0  0  0
 33 59  1  0  0  0  0
 34 35  2  0  0  0  0
 36 37  2  0  0  0  0
 37 60  1  0  0  0  0
M  END
> <PUBCHEM_COMPOUND_CID>
15816051

> <PUBCHEM_COMPOUND_CANONICALIZED>
1

> <PUBCHEM_CACTVS_COMPLEXITY>
845

> <PUBCHEM_CACTVS_HBOND_ACCEPTOR>
6

> <PUBCHEM_CACTVS_HBOND_DONOR>
8

> <PUBCHEM_CACTVS_ROTATABLE_BOND>
7

> <PUBCHEM_CACTVS_SUBSKEYS>
AAADceB78AAAGAAAAAAAAAAAAAAAAWLFiwAwAAAAAAAAAFgB/gAAHgBQAAABvQjBlgQ9kJbJkACoATV3dACCgC23EqQB2aG4dPiIaPLA3bGUIQholgLIy7cYgcAOgAAAAAAAAAAQAASAACQAQAAAAAAAAA==

> <PUBCHEM_IUPAC_OPENEYE_NAME>
N-[[(4R,5R,6S)-2-amino-4-(2-amino-1H-imidazol-5-yl)-6-[[(4-bromo-1H-pyrrole-2-carbonyl)amino]methyl]-4,5,6,7-tetrahydro-1H-benzimidazol-5-yl]methyl]-4,5-dibromo-1H-pyrrole-2-carboxamide

> <PUBCHEM_IUPAC_CAS_NAME>
N-[[(4R,5R,6S)-2-amino-4-(2-amino-1H-imidazol-5-yl)-6-[[[(4-bromo-1H-pyrrol-2-yl)-oxomethyl]amino]methyl]-4,5,6,7-tetrahydro-1H-benzimidazol-5-yl]methyl]-4,5-dibromo-1H-pyrrole-2-carboxamide

> <PUBCHEM_IUPAC_NAME_MARKUP>
<I>N</I>-[[(4<I>R</I>,5<I>R</I>,6<I>S</I>)-2-amino-4-(2-amino-1<I>H</I>-imidazol-5-yl)-6-[[(4-bromo-1<I>H</I>-pyrrole-2-carbonyl)amino]methyl]-4,5,6,7-tetrahydro-1<I>H</I>-benzimidazol-5-yl]methyl]-4,5-dibromo-1<I>H</I>-pyrrole-2-carboxamide

> <PUBCHEM_IUPAC_NAME>
N-[[(4R,5R,6S)-2-amino-4-(2-amino-1H-imidazol-5-yl)-6-[[(4-bromo-1H-pyrrole-2-carbonyl)amino]methyl]-4,5,6,7-tetrahydro-1H-benzimidazol-5-yl]methyl]-4,5-dibromo-1H-pyrrole-2-carboxamide

> <PUBCHEM_IUPAC_SYSTEMATIC_NAME>
N-[[(4R,5R,6S)-2-azanyl-4-(2-azanyl-1H-imidazol-5-yl)-6-[[(4-bromanyl-1H-pyrrol-2-yl)carbonylamino]methyl]-4,5,6,7-tetrahydro-1H-benzimidazol-5-yl]methyl]-4,5-bis(bromanyl)-1H-pyrrole-2-carboxamide

> <PUBCHEM_IUPAC_TRADITIONAL_NAME>
N-[[(4R,5R,6S)-2-amino-4-(2-amino-1H-imidazol-5-yl)-6-[[(4-bromo-1H-pyrrole-2-carbonyl)amino]methyl]-4,5,6,7-tetrahydro-1H-benzimidazol-5-yl]methyl]-4,5-dibromo-1H-pyrrole-2-carboxamide

> <PUBCHEM_IUPAC_INCHI>
InChI=1S/C22H23Br3N10O2/c23-9-2-13(28-5-9)19(36)29-4-8-1-12-17(35-22(27)33-12)16(15-7-31-21(26)34-15)10(8)6-30-20(37)14-3-11(24)18(25)32-14/h2-3,5,7-8,10,16,28,32H,1,4,6H2,(H,29,36)(H,30,37)(H3,26,31,34)(H3,27,33,35)/t8-,10-,16-/m1/s1

> <PUBCHEM_IUPAC_INCHIKEY>
ZPPBXYMLLGMARQ-DOZZXWOPSA-N

> <PUBCHEM_XLOGP3_AA>
2.5

> <PUBCHEM_EXACT_MASS>
697.95351

> <PUBCHEM_MOLECULAR_FORMULA>
C22H23Br3N10O2

> <PUBCHEM_MOLECULAR_WEIGHT>
699.2

> <PUBCHEM_CACTVS_TPSA>
199

> <PUBCHEM_MONOISOTOPIC_WEIGHT>
695.95556

> <PUBCHEM_TOTAL_CHARGE>
0

> <PUBCHEM_HEAVY_ATOM_COUNT>
37

> <PUBCHEM_ATOM_DEF_STEREO_COUNT>
3

> <PUBCHEM_ATOM_UDEF_STEREO_COUNT>
0

> <PUBCHEM_BOND_DEF_STEREO_COUNT>
0

> <PUBCHEM_BOND_UDEF_STEREO_COUNT>
0

> <PUBCHEM_ISOTOPIC_ATOM_COUNT>
0

> <PUBCHEM_COMPONENT_COUNT>
1

> <PUBCHEM_CACTVS_TAUTO_COUNT>
-1

> <PUBCHEM_COORDINATE_TYPE>
1
5
255

> <PUBCHEM_BONDANNOTATIONS>
10  24  8
10  27  8
11  26  8
11  27  8
14  30  8
14  34  8
15  31  8
15  37  8
16  22  5
17  23  6
18  24  6
20  21  8
24  26  8
30  32  8
31  33  8
32  35  8
33  36  8
34  35  8
36  37  8
6  21  8
6  25  8
7  20  8
7  25  8

$$$$
14840704
  -OEChem-07102522482D

 76 78  0     1  0  0  0  0  0999 V2000
    5.8927    4.2319    0.0000 Br  0  0  0  0  0  0  0  0  0  0  0  0
    4.8049    6.1160    0.0000 Br  0  0  0  0  0  0  0  0  0  0  0  0
    8.0264    0.0000    0.0000 Br  0  0  0  0  0  0  0  0  0  0  0  0
    8.2481    7.8479    0.0000 O   0  0  0  0  0  0  0  0  0  0  0  0
    8.2481    3.8479    0.0000 O   0  0  0  0  0  0  0  0  0  0  0  0
   10.9775   14.2611    0.0000 O   0  0  0  0  0  0  0  0  0  0  0  0
    2.2690    7.8806    0.0000 O   0  0  0  0  0  0  0  0  0  0  0  0
   10.1115   12.7611    0.0000 O   0  0  0  0  0  0  0  0  0  0  0  0
    1.4030    6.3806    0.0000 O   0  0  0  0  0  0  0  0  0  0  0  0
   13.5245    5.0431    0.0000 N   0  0  0  0  0  0  0  0  0  0  0  0
   13.5245    6.6526    0.0000 N   0  0  0  0  0  0  0  0  0  0  0  0
    9.1142    6.3479    0.0000 N   0  0  0  0  0  0  0  0  0  0  0  0
    9.9802    3.8479    0.0000 N   0  0  0  0  0  0  0  0  0  0  0  0
   10.9032    8.4356    0.0000 N   0  0  0  0  0  0  0  0  0  0  0  0
   12.2122    9.3867    0.0000 N   0  0  0  0  0  0  0  0  0  0  0  0
   15.1081    5.8479    0.0000 N   0  0  0  0  0  0  0  0  0  0  0  0
   10.6245   10.1957    0.0000 N   0  0  0  0  0  0  0  0  0  0  0  0
    7.2776    5.3533    0.0000 N   0  0  0  0  0  0  0  0  0  0  0  0
    9.9232    1.7601    0.0000 N   0  0  0  0  0  0  0  0  0  0  0  0
   10.8462    6.3479    0.0000 C   0  0  3  0  0  0  0  0  0  0  0  0
   10.8462    5.3479    0.0000 C   0  0  3  0  0  0  0  0  0  0  0  0
   11.7122    6.8479    0.0000 C   0  0  3  0  0  0  0  0  0  0  0  0
   11.7122    4.8479    0.0000 C   0  0  0  0  0  0  0  0  0  0  0  0
   12.5783    6.3479    0.0000 C   0  0  0  0  0  0  0  0  0  0  0  0
   12.5783    5.3479    0.0000 C   0  0  0  0  0  0  0  0  0  0  0  0
    9.9802    6.8479    0.0000 C   0  0  0  0  0  0  0  0  0  0  0  0
    9.9802    4.8479    0.0000 C   0  0  0  0  0  0  0  0  0  0  0  0
   11.7122    7.8479    0.0000 C   0  0  0  0  0  0  0  0  0  0  0  0
   14.1081    5.8479    0.0000 C   0  0  0  0  0  0  0  0  0  0  0  0
   12.5213    8.4356    0.0000 C   0  0  0  0  0  0  0  0  0  0  0  0
   11.2122    9.3867    0.0000 C   0  0  0  0  0  0  0  0  0  0  0  0
    8.2481    6.8479    0.0000 C   0  0  0  0  0  0  0  0  0  0  0  0
    9.1142    3.3479    0.0000 C   0  0  0  0  0  0  0  0  0  0  0  0
    7.3821    6.3479    0.0000 C   0  0  0  0  0  0  0  0  0  0  0  0
    9.1142    2.3479    0.0000 C   0  0  0  0  0  0  0  0  0  0  0  0
    6.4686    6.7546    0.0000 C   0  0  0  0  0  0  0  0  0  0  0  0
    8.3052    1.7601    0.0000 C   0  0  0  0  0  0  0  0  0  0  0  0
    6.2994    5.1454    0.0000 C   0  0  0  0  0  0  0  0  0  0  0  0
    5.7994    6.0114    0.0000 C   0  0  0  0  0  0  0  0  0  0  0  0
    8.6142    0.8090    0.0000 C   0  0  0  0  0  0  0  0  0  0  0  0
    9.6142    0.8090    0.0000 C   0  0  0  0  0  0  0  0  0  0  0  0
    9.2455   14.2611    0.0000 C   0  0  0  0  0  0  0  0  0  0  0  0
    0.5369    7.8806    0.0000 C   0  0  0  0  0  0  0  0  0  0  0  0
   10.1115   13.7611    0.0000 C   0  0  0  0  0  0  0  0  0  0  0  0
    1.4030    7.3806    0.0000 C   0  0  0  0  0  0  0  0  0  0  0  0
   10.3093    6.0379    0.0000 H   0  0  0  0  0  0  0  0  0  0  0  0
   11.3831    5.6579    0.0000 H   0  0  0  0  0  0  0  0  0  0  0  0
   11.1753    7.1579    0.0000 H   0  0  0  0  0  0  0  0  0  0  0  0
   11.3137    4.3729    0.0000 H   0  0  0  0  0  0  0  0  0  0  0  0
   12.1108    4.3729    0.0000 H   0  0  0  0  0  0  0  0  0  0  0  0
   10.3787    7.3228    0.0000 H   0  0  0  0  0  0  0  0  0  0  0  0
    9.5817    7.3228    0.0000 H   0  0  0  0  0  0  0  0  0  0  0  0
    9.7681    5.4305    0.0000 H   0  0  0  0  0  0  0  0  0  0  0  0
    9.3696    4.7402    0.0000 H   0  0  0  0  0  0  0  0  0  0  0  0
   13.7171    4.4538    0.0000 H   0  0  0  0  0  0  0  0  0  0  0  0
    9.1142    5.7279    0.0000 H   0  0  0  0  0  0  0  0  0  0  0  0
   10.5171    3.5379    0.0000 H   0  0  0  0  0  0  0  0  0  0  0  0
   10.3136    8.2440    0.0000 H   0  0  0  0  0  0  0  0  0  0  0  0
   13.1109    8.2440    0.0000 H   0  0  0  0  0  0  0  0  0  0  0  0
   15.4181    6.3848    0.0000 H   0  0  0  0  0  0  0  0  0  0  0  0
   15.4181    5.3109    0.0000 H   0  0  0  0  0  0  0  0  0  0  0  0
   10.8766   10.7621    0.0000 H   0  0  0  0  0  0  0  0  0  0  0  0
   10.0078   10.1309    0.0000 H   0  0  0  0  0  0  0  0  0  0  0  0
    7.7383    4.9385    0.0000 H   0  0  0  0  0  0  0  0  0  0  0  0
    6.3397    7.3610    0.0000 H   0  0  0  0  0  0  0  0  0  0  0  0
   10.5128    1.9517    0.0000 H   0  0  0  0  0  0  0  0  0  0  0  0
    7.7155    1.9517    0.0000 H   0  0  0  0  0  0  0  0  0  0  0  0
    9.9786    0.3074    0.0000 H   0  0  0  0  0  0  0  0  0  0  0  0
    9.5555   14.7980    0.0000 H   0  0  0  0  0  0  0  0  0  0  0  0
    8.7085   14.5711    0.0000 H   0  0  0  0  0  0  0  0  0  0  0  0
    8.9355   13.7242    0.0000 H   0  0  0  0  0  0  0  0  0  0  0  0
    0.8469    8.4175    0.0000 H   0  0  0  0  0  0  0  0  0  0  0  0
    0.0000    8.1906    0.0000 H   0  0  0  0  0  0  0  0  0  0  0  0
    0.2269    7.3436    0.0000 H   0  0  0  0  0  0  0  0  0  0  0  0
   11.5145   13.9511    0.0000 H   0  0  0  0  0  0  0  0  0  0  0  0
    2.8059    7.5706    0.0000 H   0  0  0  0  0  0  0  0  0  0  0  0
  1 38  1  0  0  0  0
  2 39  1  0  0  0  0
  3 40  1  0  0  0  0
  4 32  2  0  0  0  0
  5 33  2  0  0  0  0
  6 44  1  0  0  0  0
  6 75  1  0  0  0  0
  7 45  1  0  0  0  0
  7 76  1  0  0  0  0
  8 44  2  0  0  0  0
  9 45  2  0  0  0  0
 10 25  1  0  0  0  0
 10 29  1  0  0  0  0
 10 55  1  0  0  0  0
 11 24  1  0  0  0  0
 11 29  2  0  0  0  0
 12 26  1  0  0  0  0
 12 32  1  0  0  0  0
 12 56  1  0  0  0  0
 13 27  1  0  0  0  0
 13 33  1  0  0  0  0
 13 57  1  0  0  0  0
 14 28  1  0  0  0  0
 14 31  1  0  0  0  0
 14 58  1  0  0  0  0
 15 30  1  0  0  0  0
 15 31  2  0  0  0  0
 16 29  1  0  0  0  0
 16 60  1  0  0  0  0
 16 61  1  0  0  0  0
 17 31  1  0  0  0  0
 17 62  1  0  0  0  0
 17 63  1  0  0  0  0
 18 34  1  0  0  0  0
 18 38  1  0  0  0  0
 18 64  1  0  0  0  0
 19 35  1  0  0  0  0
 19 41  1  0  0  0  0
 19 66  1  0  0  0  0
 20 21  1  0  0  0  0
 20 22  1  0  0  0  0
 20 26  1  0  0  0  0
 20 46  1  0  0  0  0
 21 23  1  0  0  0  0
 21 27  1  0  0  0  0
 21 47  1  0  0  0  0
 22 24  1  0  0  0  0
 22 28  1  0  0  0  0
 22 48  1  0  0  0  0
 23 25  1  0  0  0  0
 23 49  1  0  0  0  0
 23 50  1  0  0  0  0
 24 25  2  0  0  0  0
 26 51  1  0  0  0  0
 26 52  1  0  0  0  0
 27 53  1  0  0  0  0
 27 54  1  0  0  0  0
 28 30  2  0  0  0  0
 30 59  1  0  0  0  0
 32 34  1  0  0  0  0
 33 35  1  0  0  0  0
 34 36  2  0  0  0  0
 35 37  2  0  0  0  0
 36 39  1  0  0  0  0
 36 65  1  0  0  0  0
 37 40  1  0  0  0  0
 37 67  1  0  0  0  0
 38 39  2  0  0  0  0
 40 41  2  0  0  0  0
 41 68  1  0  0  0  0
 42 44  1  0  0  0  0
 42 69  1  0  0  0  0
 42 70  1  0  0  0  0
 42 71  1  0  0  0  0
 43 45  1  0  0  0  0
 43 72  1  0  0  0  0
 43 73  1  0  0  0  0
 43 74  1  0  0  0  0
M  END
> <PUBCHEM_COMPOUND_CID>
14840704

> <PUBCHEM_COMPOUND_CANONICALIZED>
1

> <PUBCHEM_CACTVS_COMPLEXITY>
876

> <PUBCHEM_CACTVS_HBOND_ACCEPTOR>
10

> <PUBCHEM_CACTVS_HBOND_DONOR>
10

> <PUBCHEM_CACTVS_ROTATABLE_BOND>
7

> <PUBCHEM_CACTVS_SUBSKEYS>
AAADceB7+AAAGAAAAAAAAAAAAAAAAWLFiwAwAAAAAAAAAFgB/gAAHgBQCAABvQjBlgQ/mJbJkgCoATX3fACCgC23EqQB2aG4dPiIaPLA3bGUIQholgLIy7cYgcAOgAAAAAAAAAAQAASAACQAQAAAAAAAAA==

> <PUBCHEM_IUPAC_OPENEYE_NAME>
acetic acid;N-[[2-amino-4-(2-amino-1H-imidazol-5-yl)-6-[[(4-bromo-1H-pyrrole-2-carbonyl)amino]methyl]-4,5,6,7-tetrahydro-1H-benzimidazol-5-yl]methyl]-4,5-dibromo-1H-pyrrole-2-carboxamide

> <PUBCHEM_IUPAC_CAS_NAME>
acetic acid;N-[[2-amino-4-(2-amino-1H-imidazol-5-yl)-6-[[[(4-bromo-1H-pyrrol-2-yl)-oxomethyl]amino]methyl]-4,5,6,7-tetrahydro-1H-benzimidazol-5-yl]methyl]-4,5-dibromo-1H-pyrrole-2-carboxamide

> <PUBCHEM_IUPAC_NAME_MARKUP>
acetic acid;<I>N</I>-[[2-amino-4-(2-amino-1<I>H</I>-imidazol-5-yl)-6-[[(4-bromo-1<I>H</I>-pyrrole-2-carbonyl)amino]methyl]-4,5,6,7-tetrahydro-1<I>H</I>-benzimidazol-5-yl]methyl]-4,5-dibromo-1<I>H</I>-pyrrole-2-carboxamide

> <PUBCHEM_IUPAC_NAME>
acetic acid;N-[[2-amino-4-(2-amino-1H-imidazol-5-yl)-6-[[(4-bromo-1H-pyrrole-2-carbonyl)amino]methyl]-4,5,6,7-tetrahydro-1H-benzimidazol-5-yl]methyl]-4,5-dibromo-1H-pyrrole-2-carboxamide

> <PUBCHEM_IUPAC_SYSTEMATIC_NAME>
N-[[2-azanyl-4-(2-azanyl-1H-imidazol-5-yl)-6-[[(4-bromanyl-1H-pyrrol-2-yl)carbonylamino]methyl]-4,5,6,7-tetrahydro-1H-benzimidazol-5-yl]methyl]-4,5-bis(bromanyl)-1H-pyrrole-2-carboxamide;ethanoic acid

> <PUBCHEM_IUPAC_TRADITIONAL_NAME>
acetic acid;N-[[2-amino-4-(2-amino-1H-imidazol-5-yl)-6-[[(4-bromo-1H-pyrrole-2-carbonyl)amino]methyl]-4,5,6,7-tetrahydro-1H-benzimidazol-5-yl]methyl]-4,5-dibromo-1H-pyrrole-2-carboxamide

> <PUBCHEM_IUPAC_INCHI>
InChI=1S/C22H23Br3N10O2.2C2H4O2/c23-9-2-13(28-5-9)19(36)29-4-8-1-12-17(35-22(27)33-12)16(15-7-31-21(26)34-15)10(8)6-30-20(37)14-3-11(24)18(25)32-14;2*1-2(3)4/h2-3,5,7-8,10,16,28,32H,1,4,6H2,(H,29,36)(H,30,37)(H3,26,31,34)(H3,27,33,35);2*1H3,(H,3,4)

> <PUBCHEM_IUPAC_INCHIKEY>
NWDPBAYXMFIPDB-UHFFFAOYSA-N

> <PUBCHEM_EXACT_MASS>
817.99577

> <PUBCHEM_MOLECULAR_FORMULA>
C26H31Br3N10O6

> <PUBCHEM_MOLECULAR_WEIGHT>
819.3

> <PUBCHEM_CACTVS_TPSA>
274

> <PUBCHEM_MONOISOTOPIC_WEIGHT>
815.99782

> <PUBCHEM_TOTAL_CHARGE>
0

> <PUBCHEM_HEAVY_ATOM_COUNT>
45

> <PUBCHEM_ATOM_DEF_STEREO_COUNT>
0

> <PUBCHEM_ATOM_UDEF_STEREO_COUNT>
3

> <PUBCHEM_BOND_DEF_STEREO_COUNT>
0

> <PUBCHEM_BOND_UDEF_STEREO_COUNT>
0

> <PUBCHEM_ISOTOPIC_ATOM_COUNT>
0

> <PUBCHEM_COMPONENT_COUNT>
3

> <PUBCHEM_CACTVS_TAUTO_COUNT>
-1

> <PUBCHEM_COORDINATE_TYPE>
1
5
255

> <PUBCHEM_BONDANNOTATIONS>
10  25  8
10  29  8
11  24  8
11  29  8
14  28  8
14  31  8
15  30  8
15  31  8
18  34  8
18  38  8
19  35  8
19  41  8
20  26  3
21  27  3
22  28  3
24  25  8
28  30  8
34  36  8
35  37  8
36  39  8
37  40  8
38  39  8
40  41  8

$$$$
