10819091
  -OEChem-07102523432D

 59 62  0     1  0  0  0  0  0999 V2000
    2.5997   -0.8075    0.0000 Br  0  0  0  0  0  0  0  0  0  0  0  0
    2.0000    1.2838    0.0000 Br  0  0  0  0  0  0  0  0  0  0  0  0
   18.1545   -0.3490    0.0000 Br  0  0  0  0  0  0  0  0  0  0  0  0
   18.3820   -2.5127    0.0000 Br  0  0  0  0  0  0  0  0  0  0  0  0
    7.8114   -1.1675    0.0000 O   0  0  0  0  0  0  0  0  0  0  0  0
    5.7599    2.1312    0.0000 O   0  0  0  0  0  0  0  0  0  0  0  0
   14.5320   -2.6943    0.0000 O   0  0  0  0  0  0  0  0  0  0  0  0
   10.4076   -0.9596    0.0000 N   0  0  0  0  0  0  0  0  0  0  0  0
    9.8773    1.3883    0.0000 N   0  0  0  0  0  0  0  0  0  0  0  0
    9.0986   -1.9106    0.0000 N   0  0  0  0  0  0  0  0  0  0  0  0
   11.4953    1.3883    0.0000 N   0  0  0  0  0  0  0  0  0  0  0  0
   10.6863   -2.7197    0.0000 N   0  0  0  0  0  0  0  0  0  0  0  0
   10.6863    2.9761    0.0000 N   0  0  0  0  0  0  0  0  0  0  0  0
    6.2373    0.4662    0.0000 N   0  0  0  0  0  0  0  0  0  0  0  0
   14.3509   -0.9718    0.0000 N   0  0  0  0  0  0  0  0  0  0  0  0
    4.2147   -0.0544    0.0000 N   0  0  0  0  0  0  0  0  0  0  0  0
   16.4333   -0.8102    0.0000 N   0  0  0  0  0  0  0  0  0  0  0  0
    9.5986   -0.3718    0.0000 C   0  0  3  0  0  0  0  0  0  0  0  0
   10.1863    0.4372    0.0000 C   0  0  0  0  0  0  0  0  0  0  0  0
    8.7895   -0.9596    0.0000 C   0  0  0  0  0  0  0  0  0  0  0  0
    8.8792    0.3229    0.0000 C   0  0  0  0  0  0  0  0  0  0  0  0
   11.1863    0.4372    0.0000 C   0  0  0  0  0  0  0  0  0  0  0  0
   10.0985   -1.9106    0.0000 C   0  0  0  0  0  0  0  0  0  0  0  0
   10.6863    1.9761    0.0000 C   0  0  0  0  0  0  0  0  0  0  0  0
    7.9179    0.0472    0.0000 C   0  0  0  0  0  0  0  0  0  0  0  0
   11.7741   -0.3718    0.0000 C   0  0  0  0  0  0  0  0  0  0  0  0
    7.1986    0.7419    0.0000 C   0  0  0  0  0  0  0  0  0  0  0  0
   12.7686   -0.2673    0.0000 C   0  0  0  0  0  0  0  0  0  0  0  0
   13.3564   -1.0763    0.0000 C   0  0  0  0  0  0  0  0  0  0  0  0
    5.5180    1.1609    0.0000 C   0  0  0  0  0  0  0  0  0  0  0  0
    4.5567    0.8853    0.0000 C   0  0  0  0  0  0  0  0  0  0  0  0
   14.9387   -1.7808    0.0000 C   0  0  0  0  0  0  0  0  0  0  0  0
   15.9333   -1.6763    0.0000 C   0  0  0  0  0  0  0  0  0  0  0  0
    3.7687    1.5009    0.0000 C   0  0  0  0  0  0  0  0  0  0  0  0
    3.2153   -0.0195    0.0000 C   0  0  0  0  0  0  0  0  0  0  0  0
    2.9397    0.9417    0.0000 C   0  0  0  0  0  0  0  0  0  0  0  0
   16.6024   -2.4194    0.0000 C   0  0  0  0  0  0  0  0  0  0  0  0
   17.4114   -1.0181    0.0000 C   0  0  0  0  0  0  0  0  0  0  0  0
   17.5159   -2.0127    0.0000 C   0  0  0  0  0  0  0  0  0  0  0  0
    9.0292    0.9244    0.0000 H   0  0  0  0  0  0  0  0  0  0  0  0
    9.3299    1.6794    0.0000 H   0  0  0  0  0  0  0  0  0  0  0  0
    8.7341   -2.4122    0.0000 H   0  0  0  0  0  0  0  0  0  0  0  0
    7.4873   -0.3988    0.0000 H   0  0  0  0  0  0  0  0  0  0  0  0
   11.5219   -0.9382    0.0000 H   0  0  0  0  0  0  0  0  0  0  0  0
    7.7002    1.1063    0.0000 H   0  0  0  0  0  0  0  0  0  0  0  0
    6.9268    1.2991    0.0000 H   0  0  0  0  0  0  0  0  0  0  0  0
   10.4342   -3.2861    0.0000 H   0  0  0  0  0  0  0  0  0  0  0  0
   11.3029   -2.6549    0.0000 H   0  0  0  0  0  0  0  0  0  0  0  0
   13.0208    0.2991    0.0000 H   0  0  0  0  0  0  0  0  0  0  0  0
   11.2233    3.2861    0.0000 H   0  0  0  0  0  0  0  0  0  0  0  0
   10.1494    3.2861    0.0000 H   0  0  0  0  0  0  0  0  0  0  0  0
    6.0874   -0.1353    0.0000 H   0  0  0  0  0  0  0  0  0  0  0  0
   12.7992   -1.3481    0.0000 H   0  0  0  0  0  0  0  0  0  0  0  0
   13.5273   -1.6723    0.0000 H   0  0  0  0  0  0  0  0  0  0  0  0
   14.6031   -0.4054    0.0000 H   0  0  0  0  0  0  0  0  0  0  0  0
    4.5614   -0.5684    0.0000 H   0  0  0  0  0  0  0  0  0  0  0  0
    3.7904    2.1206    0.0000 H   0  0  0  0  0  0  0  0  0  0  0  0
   16.1811   -0.2438    0.0000 H   0  0  0  0  0  0  0  0  0  0  0  0
   16.4735   -3.0259    0.0000 H   0  0  0  0  0  0  0  0  0  0  0  0
  1 35  1  0  0  0  0
  2 36  1  0  0  0  0
  3 38  1  0  0  0  0
  4 39  1  0  0  0  0
  5 20  2  0  0  0  0
  6 30  2  0  0  0  0
  7 32  2  0  0  0  0
  8 18  1  0  0  0  0
  8 23  2  0  0  0  0
  9 19  1  0  0  0  0
  9 24  1  0  0  0  0
  9 41  1  0  0  0  0
 10 20  1  0  0  0  0
 10 23  1  0  0  0  0
 10 42  1  0  0  0  0
 11 22  1  0  0  0  0
 11 24  2  0  0  0  0
 12 23  1  0  0  0  0
 12 47  1  0  0  0  0
 12 48  1  0  0  0  0
 13 24  1  0  0  0  0
 13 50  1  0  0  0  0
 13 51  1  0  0  0  0
 14 27  1  0  0  0  0
 14 30  1  0  0  0  0
 14 52  1  0  0  0  0
 15 29  1  0  0  0  0
 15 32  1  0  0  0  0
 15 55  1  0  0  0  0
 16 31  1  0  0  0  0
 16 35  1  0  0  0  0
 16 56  1  0  0  0  0
 17 33  1  0  0  0  0
 17 38  1  0  0  0  0
 17 58  1  0  0  0  0
 18 19  1  0  0  0  0
 18 20  1  0  0  0  0
 18 21  1  0  0  0  0
 19 22  2  0  0  0  0
 21 25  2  0  0  0  0
 21 40  1  0  0  0  0
 22 26  1  0  0  0  0
 25 27  1  0  0  0  0
 25 43  1  0  0  0  0
 26 28  2  0  0  0  0
 26 44  1  0  0  0  0
 27 45  1  0  0  0  0
 27 46  1  0  0  0  0
 28 29  1  0  0  0  0
 28 49  1  0  0  0  0
 29 53  1  0  0  0  0
 29 54  1  0  0  0  0
 30 31  1  0  0  0  0
 31 34  2  0  0  0  0
 32 33  1  0  0  0  0
 33 37  2  0  0  0  0
 34 36  1  0  0  0  0
 34 57  1  0  0  0  0
 35 36  2  0  0  0  0
 37 39  1  0  0  0  0
 37 59  1  0  0  0  0
 38 39  2  0  0  0  0
M  END
> <PUBCHEM_COMPOUND_CID>
10819091

> <PUBCHEM_COMPOUND_CANONICALIZED>
1

> <PUBCHEM_CACTVS_COMPLEXITY>
1050

> <PUBCHEM_CACTVS_HBOND_ACCEPTOR>
6

> <PUBCHEM_CACTVS_HBOND_DONOR>
8

> <PUBCHEM_CACTVS_ROTATABLE_BOND>
9

> <PUBCHEM_CACTVS_SUBSKEYS>
AAADceB78AAAHAAAAAAAAAAAAAAAAWLFiAAAAAAAAAAAAAAB+AAAHgBQAAABvIjBlgQxkJbJkACoASVydACCgC2nEqQJmaG4dPiIaPrA3bGUAQholwLIy7YcAQAMAAAAAAAAAAAAAAAAAAAAAAAAAAAAAA==

> <PUBCHEM_IUPAC_OPENEYE_NAME>
N-[(E)-3-[2-amino-5-[2-amino-4-[(E)-3-[(4,5-dibromo-1H-pyrrole-2-carbonyl)amino]prop-1-enyl]-5-oxo-1H-imidazol-4-yl]-1H-imidazol-4-yl]allyl]-4,5-dibromo-1H-pyrrole-2-carboxamide

> <PUBCHEM_IUPAC_CAS_NAME>
N-[(E)-3-[2-amino-5-[2-amino-4-[(E)-3-[[(4,5-dibromo-1H-pyrrol-2-yl)-oxomethyl]amino]prop-1-enyl]-5-oxo-1H-imidazol-4-yl]-1H-imidazol-4-yl]prop-2-enyl]-4,5-dibromo-1H-pyrrole-2-carboxamide

> <PUBCHEM_IUPAC_NAME_MARKUP>
<I>N</I>-[(<I>E</I>)-3-[2-amino-5-[2-amino-4-[(<I>E</I>)-3-[(4,5-dibromo-1<I>H</I>-pyrrole-2-carbonyl)amino]prop-1-enyl]-5-oxo-1<I>H</I>-imidazol-4-yl]-1<I>H</I>-imidazol-4-yl]prop-2-enyl]-4,5-dibromo-1<I>H</I>-pyrrole-2-carboxamide

> <PUBCHEM_IUPAC_NAME>
N-[(E)-3-[2-amino-5-[2-amino-4-[(E)-3-[(4,5-dibromo-1H-pyrrole-2-carbonyl)amino]prop-1-enyl]-5-oxo-1H-imidazol-4-yl]-1H-imidazol-4-yl]prop-2-enyl]-4,5-dibromo-1H-pyrrole-2-carboxamide

> <PUBCHEM_IUPAC_SYSTEMATIC_NAME>
N-[(E)-3-[2-azanyl-5-[2-azanyl-4-[(E)-3-[[4,5-bis(bromanyl)-1H-pyrrol-2-yl]carbonylamino]prop-1-enyl]-5-oxidanylidene-1H-imidazol-4-yl]-1H-imidazol-4-yl]prop-2-enyl]-4,5-bis(bromanyl)-1H-pyrrole-2-carboxamide

> <PUBCHEM_IUPAC_TRADITIONAL_NAME>
N-[(E)-3-[2-amino-5-[2-amino-4-[(E)-3-[(4,5-dibromo-1H-pyrrole-2-carbonyl)amino]prop-1-enyl]-5-keto-2-imidazolin-4-yl]-1H-imidazol-4-yl]allyl]-4,5-dibromo-1H-pyrrole-2-carboxamide

> <PUBCHEM_IUPAC_INCHI>
InChI=1S/C22H20Br4N10O3/c23-9-7-12(31-15(9)25)17(37)29-5-1-3-11-14(34-20(27)33-11)22(19(39)35-21(28)36-22)4-2-6-30-18(38)13-8-10(24)16(26)32-13/h1-4,7-8,31-32H,5-6H2,(H,29,37)(H,30,38)(H3,27,33,34)(H3,28,35,36,39)/b3-1+,4-2+

> <PUBCHEM_IUPAC_INCHIKEY>
AACKLUYHFHIQSO-ZPUQHVIOSA-N

> <PUBCHEM_XLOGP3_AA>
2.6

> <PUBCHEM_EXACT_MASS>
791.84124

> <PUBCHEM_MOLECULAR_FORMULA>
C22H20Br4N10O3

> <PUBCHEM_MOLECULAR_WEIGHT>
792.1

> <PUBCHEM_CACTVS_TPSA>
212

> <PUBCHEM_MONOISOTOPIC_WEIGHT>
787.84533

> <PUBCHEM_TOTAL_CHARGE>
0

> <PUBCHEM_HEAVY_ATOM_COUNT>
39

> <PUBCHEM_ATOM_DEF_STEREO_COUNT>
0

> <PUBCHEM_ATOM_UDEF_STEREO_COUNT>
1

> <PUBCHEM_BOND_DEF_STEREO_COUNT>
2

> <PUBCHEM_BOND_UDEF_STEREO_COUNT>
0

> <PUBCHEM_ISOTOPIC_ATOM_COUNT>
0

> <PUBCHEM_COMPONENT_COUNT>
1

> <PUBCHEM_CACTVS_TAUTO_COUNT>
-1

> <PUBCHEM_COORDINATE_TYPE>
1
5
255

> <PUBCHEM_BONDANNOTATIONS>
11  22  8
11  24  8
16  31  8
16  35  8
17  33  8
17  38  8
18  21  3
19  22  8
31  34  8
33  37  8
34  36  8
35  36  8
37  39  8
38  39  8
9  19  8
9  24  8

$$$$
